       6
 i =        0, time =        0.000, E =       -34.3185428555
  H         3.0120000000        1.3070000000        4.6790000000
  H         1.3980000000        1.0640000000        4.7180000000
  O         2.2900000000        0.6150000000        4.7140000000
  H         0.6730000000        3.8050000000        3.7810000000
  H         0.0510000000        4.9310000000        4.7880000000
  O         0.8230000000        4.3170000000        4.6270000000
       6
 i =        1, time =        0.500, E =       -34.3355531335
  H         3.0282502329        1.3074094820        4.6745551860
  H         1.4008496764        1.0563716590        4.7208906410
  O         2.2866320700        0.6150229758        4.7136324849
  H         0.6932212187        3.8028678345        3.7944583675
  H         0.0702924276        4.9230868531        4.7839382713
  O         0.8242796529        4.3159449448        4.6279041827
